*Heading
** Job name: FC Model name: Field Change
** Generated by: Abaqus/CAE 2019
*Preprint, echo=NO, model=NO, history=NO, contact=NO
**
** PARTS
**
*Part, name=Bolt
*Node
      1, -0.0125000002, 0.0350000001,           0.
      2, -0.0125000002, -0.0649999976,           0.
      3, -0.0225000009, -0.0649999976,           0.
      4, -0.0225000009, -0.0900000036,           0.
      5, -0.0225000009,  0.159999996,           0.
      6, -0.0225000009,  0.135000005,           0.
      7, -0.0125000002,  0.135000005,           0.
      8, -0.0110682007, 0.0350000001, 0.00580903981
      9, -0.00710080937, 0.0350000001, 0.0102872979
     10, -0.00150670845, 0.0350000001,  0.012408861
     11, 0.00443256088, 0.0350000001, 0.0116877034
     12, 0.00935638417, 0.0350000001, 0.00828903355
     13, 0.0121367723, 0.0350000001, 0.00299144583
     14, 0.0121367723, 0.0350000001, -0.00299144583
     15, 0.00935638417, 0.0350000001, -0.00828903355
     16, 0.00443256088, 0.0350000001, -0.0116877034
     17, -0.00150670845, 0.0350000001, -0.012408861
     18, -0.00710080937, 0.0350000001, -0.0102872979
     19, -0.0110682007, 0.0350000001, -0.00580903981
     20, -0.0110682007, -0.0649999976, 0.00580903981
** ... 9575 like lines cut
*Element, type=C3D10
   1,  836,  837,  838,  839, 1445, 1444, 1443, 1447, 1446, 1448
   2,  839,  837,  838,  420, 1446, 1444, 1448, 1450, 1449, 1451
   3,  839,  443,  837,  420, 1453, 1452, 1446, 1450, 1454, 1449
   4,  839,   73,  840,  841, 1457, 1456, 1455, 1459, 1458, 1460
   5,  839,  840,   73,   72, 1455, 1456, 1457, 1462, 1461, 1463
   6,  842,  843,  837,  836, 1466, 1465, 1464, 1468, 1467, 1445
   7,  843,  837,  836,  839, 1465, 1445, 1467, 1469, 1446, 1447
   8,  839,  841,  843,  837, 1459, 1470, 1469, 1446, 1471, 1465
   9,  224,  844,  236,  845, 1474, 1473, 1472, 1476, 1475, 1477
  10,  839,  843,  840,  836, 1469, 1478, 1455, 1447, 1467, 1479
  11,  843,  846,  842,  847, 1481, 1480, 1466, 1483, 1482, 1484
  12,  843,  846,  848,  836, 1481, 1486, 1485, 1467, 1487, 1488
  13,  843,  840,  848,  849, 1478, 1489, 1485, 1491, 1490, 1492
  14,  850,  851,  852,  853, 1495, 1494, 1493, 1497, 1496, 1498
  15,  853,  854,  855,  856, 1501, 1500, 1499, 1503, 1502, 1504
  16,  853,  847,  854,  857, 1506, 1505, 1501, 1508, 1507, 1509
  17,  853,  851,  858,  850, 1496, 1511, 1510, 1497, 1495, 1512
  18,  853,  854,  856,  857, 1501, 1502, 1503, 1508, 1509, 1513
  19,  859,  860,  253,  861, 1516, 1515, 1514, 1518, 1517, 1519
  20,  241,  859,  860,  253, 1521, 1516, 1520, 1522, 1514, 1515
** ... 5868 like lines cut
*Nset, nset=Bolt_All, generate
    1,  9595,     1
*Elset, elset=Bolt_All, generate
    1,  5888,     1
*Nset, nset="Preload Region"
    1,    8,    9,   10,   11,   12,   13,   14,   15,   16,   17,   18,   19, 4050, 4367, 4390
 4404, 5015, 5045, 5356, 5525, 5538, 5591, 5592, 5620, 5634
*Elset, elset="Preload Region"
  935, 1140, 1165, 1172, 1719, 1759, 2122, 2237, 2246, 2478, 2671, 2708, 2782, 2783, 2815, 2851
 2860, 2921, 3762, 4878, 5228, 5230, 5231, 5237, 5267, 5270, 5274, 5278, 5285, 5299, 5306, 5318
 5497, 5711, 5847
*Elset, elset="_Contact 1_S3", internal
   77,  136,  185,  196,  219,  404,  409,  426,  427,  481,  531,  543,  549,  731,  767,  840
  884,  886,  995, 1014, 1032, 1036, 1048, 1113, 1114, 1180, 1206, 1265, 1274, 1307, 1318, 1383
 1386, 1401, 1423, 1446, 1471, 1480, 1578, 1588, 1606, 1619, 1632, 1658, 1858, 1864, 1867, 1953
 1964, 1973, 2014, 2020, 2045, 2063, 2079, 2095, 2134, 2180, 2249, 2283, 2343, 2372, 2459, 2576
 2627, 2673, 2973, 3025
*Elset, elset="_Contact 1_S2", internal
  137,  242,  425, 1561
*Elset, elset="_Contact 1_S1", internal
  216, 1336, 1565, 1892
*Elset, elset="_Contact 1_S4", internal
  560,  635, 1142, 1360, 1538, 1839, 2109
*Surface, type=ELEMENT, name="Contact 1"
"_Contact 1_S3", S3
"_Contact 1_S2", S2
"_Contact 1_S4", S4
"_Contact 1_S1", S1
*Elset, elset="_Contact 2_S3", internal
 3106, 3107, 3108, 3462, 3531, 3851, 3958, 3959, 3982, 4021, 4486, 4775, 4786, 4788, 4791, 4829
 4833, 4840, 4842, 4847, 4854, 4855, 5046, 5206, 5256, 5275, 5397, 5617, 5639, 5650, 5654, 5666
 5667, 5668, 5671, 5686, 5716, 5736, 5743, 5744, 5769, 5770, 5777, 5790, 5791, 5803, 5813, 5815
 5816, 5820, 5823, 5828, 5849
*Elset, elset="_Contact 2_S4", internal
 3146, 4099, 4690, 4794, 5367, 5622, 5682, 5706, 5710, 5748
*Elset, elset="_Contact 2_S2", internal
 3615, 4639, 5250, 5645, 5658, 5692, 5741
*Elset, elset="_Contact 2_S1", internal
 5190, 5384, 5400, 5402, 5413, 5414, 5496, 5523, 5551, 5562, 5573, 5704, 5765
*Surface, type=ELEMENT, name="Contact 2"
"_Contact 2_S3", S3
"_Contact 2_S4", S4
"_Contact 2_S2", S2
"_Contact 2_S1", S1
** Section: Bolt
*Solid Section, elset=Bolt_All, material=Steel
,
*Elset, elset="__Bolt Pretension_blrs__S2", internal
 3238, 3762, 5270, 5285
*Elset, elset="__Bolt Pretension_blrs__S1", internal
 3245, 3389, 5228, 5354, 5522
*Elset, elset="__Bolt Pretension_blrs__S3", internal
 3268, 3314, 3769, 3831, 3918, 3997, 4544, 4875, 4878, 5245, 5263, 5456, 5497, 5711, 5847
*Elset, elset="__Bolt Pretension_blrs__S4", internal
 5230, 5231, 5278, 5299, 5318
*Surface, type=ELEMENT, name="_Bolt Pretension_blrs_", internal
"__Bolt Pretension_blrs__S2", S2
"__Bolt Pretension_blrs__S1", S1
"__Bolt Pretension_blrs__S4", S4
"__Bolt Pretension_blrs__S3", S3
*Node
   9596,           0.,           0.,           0.
*Nset, nset="_Bolt Pretension_blrn_", internal
9596, 
** Pre-Tension Section for Bolt Load: Bolt Pretension
*Pre-tension Section, surface= "_Bolt Pretension_blrs_", node="_Bolt Pretension_blrn_"
*End Part
**  
*Part, name=Plate
*Node
      1,       0.0625,           0.,           0.
      2,       0.0625,           0.,  0.100000001
      3,       0.0625,      -0.0625,  0.100000001
      4,       0.0625,      -0.0625,           0.
      5, 0.0125000002,           0.,           0.
      6, 0.0125000002,           0.,  0.100000001
      7,           0., -0.0125000002,  0.100000001
      8,           0.,      -0.0625,  0.100000001
      9,           0., -0.0125000002,           0.
     10,           0.,      -0.0625,           0.
     11,      -0.0625,           0.,  0.100000001
     12, -0.0125000002,           0.,  0.100000001
     13, -0.0125000002,           0.,           0.
     14,      -0.0625,           0.,           0.
     15,      -0.0625,      -0.0625,  0.100000001
     16,      -0.0625,      -0.0625,           0.
     17,           0.,       0.0625,  0.100000001
     18,           0.,       0.0625,           0.
     19,      -0.0625,       0.0625,           0.
     20,      -0.0625,       0.0625,  0.100000001
** ... 8044 like lines cut
*Element, type=C3D8R
   1,  721,  722, 3280, 2985,   32,   33,  450,  449
   2,  722,   50,  593, 3280,   33,    1,   34,  450
   3, 2985, 3280, 3281, 2986,  449,  450,  452,  451
   4, 3280,  593,  594, 3281,  450,   34,   35,  452
   5, 2986, 3281, 3282, 2987,  451,  452,  454,  453
   6, 3281,  594,  595, 3282,  452,   35,   36,  454
   7, 2987, 3282, 3283, 2988,  453,  454,  456,  455
   8, 3282,  595,  596, 3283,  454,   36,   37,  456
   9, 2988, 3283, 3284, 2989,  455,  456,  458,  457
  10, 3283,  596,  597, 3284,  456,   37,   38,  458
  11, 2989, 3284, 3285, 2990,  457,  458,  460,  459
  12, 3284,  597,  598, 3285,  458,   38,   39,  460
  13, 2990, 3285, 3286, 2991,  459,  460,  462,  461
  14, 3285,  598,  599, 3286,  460,   39,   40,  462
  15, 2991, 3286, 3287, 2992,  461,  462,  464,  463
  16, 3286,  599,  600, 3287,  462,   40,   41,  464
  17, 2992, 3287, 3041, 2961,  463,  464,  466,  465
  18, 3287,  600,  601, 3041,  464,   41,   42,  466
  19,  723,  724, 3288, 2993,  721,  722, 3280, 2985
  20,  724,   51,  602, 3288,  722,   50,  593, 3280
** ... 6780 like lines cut
*Nset, nset=Plate_All, generate
    1,  8064,     1
*Elset, elset=Plate_All, generate
    1,  6800,     1
*Nset, nset="Contact - D1"
   6,   7,   8,  12,  22, 128, 129, 130, 131, 132, 133, 134, 135, 136, 137, 138
 228, 229, 230, 400, 401, 402
*Elset, elset="Contact - D1"
 1386, 1394, 1395, 1396, 1411, 1412, 1413, 1414, 1415, 1416, 1417, 1418, 1845, 1854, 2584, 2586
 2588, 2590, 2592, 2594, 2596, 2598, 2727, 2728, 5229, 5230, 5245, 5246
*Elset, elset="_Face +Z_S2", internal
 1395, 1396, 1411, 1412, 1413, 1414, 1415, 1416, 1417, 1418, 1419, 1420, 1421, 1422, 1423, 1424
 1425, 1426, 2007, 2008, 2009, 2010, 2011, 2012, 2013, 2014, 2015, 2016, 2017, 2018, 2019, 2020
 2021, 2022, 2023, 2024, 2025, 2026, 2027, 2028, 2029, 2030, 2031, 2032, 2033, 2034, 2035, 2036
 2037, 2038, 2039, 2040, 2041, 2042, 2043, 2044, 2045, 2046, 2047, 2048, 2049, 2050, 2051, 2052
 2053, 2054, 2055, 2056, 2057, 2058, 2059, 2060, 2061, 2062, 2063, 2064, 2065, 2066, 2067, 2068
 2069, 2070, 2583, 2584, 2585, 2586, 2587, 2588, 2589, 2590, 2591, 2592, 2593, 2594, 2595, 2596
 2597, 2598, 2727, 2728, 4795, 4796, 4797, 4798, 4799, 4800, 4801, 4802, 4803, 4804, 4805, 4806
 4807, 4808, 4809, 4810, 4939, 4940, 5101, 5102, 5103, 5104, 5105, 5106, 5107, 5108, 5109, 5110
 5111, 5112, 5113, 5114, 5115, 5116, 5229, 5230, 5245, 5246, 5261, 5262, 5263, 5264, 5265, 5266
 5267, 5268, 5269, 5270, 5271, 5272, 5273, 5274, 5275, 5276, 5389, 5390, 5391, 5392, 5393, 5394
 5395, 5396, 5397, 5398, 5399, 5400, 5401, 5402, 5403, 5404, 5405, 5406, 5407, 5408, 5409, 5410
 5411, 5412, 5413, 5414, 5415, 5416, 5417, 5418, 5419, 5420, 5421, 5422, 5423, 5424, 5425, 5426
 5427, 5428, 5429, 5430, 5431, 5432, 5433, 5434, 5435, 5436, 5437, 5438, 5439, 5440, 5441, 5442
 5443, 5444, 5445, 5446, 5447, 5448, 5449, 5450, 5451, 5452
*Elset, elset="_Face +Z_S3", internal
  273,  274,  275,  276,  277,  278,  279,  280,  337,  338,  339,  340,  341,  342,  343,  344
  401,  402,  403,  404,  405,  406,  407,  408,  465,  466,  467,  468,  469,  470,  471,  472
  529,  530,  531,  532,  533,  534,  535,  536,  593,  594,  595,  596,  597,  598,  599,  600
  657,  658,  659,  660,  661,  662,  663,  664,  721,  722,  723,  724,  725,  726,  727,  728
 1845, 1854, 3401, 3402, 3419, 3420, 3437, 3438, 3455, 3456, 3473, 3474, 3491, 3492, 3509, 3510
 3527, 3528, 4777, 4786
*Elset, elset="_Face +Z_S4", internal
  152,  160,  168,  176,  184,  192,  200,  208,  216,  224,  232,  240,  248,  256,  264,  272
 1386, 1394, 1709, 1718, 1727, 1736, 1745, 1754, 1763, 1772, 1781, 1790, 1799, 1808, 1817, 1826
 1835, 1844, 4193, 4202, 4211, 4220, 4229, 4238, 4247, 4256, 4265, 4274, 4283, 4292, 4301, 4310
 4319, 4328, 4337, 4346, 4355, 4364, 4373, 4382, 4391, 4400, 4409, 4418, 4427, 4436, 4445, 4454
 4463, 4472, 4481, 4490, 4499, 4508, 4517, 4526, 4535, 4544, 4553, 4562, 4571, 4580, 4589, 4598
 4607, 4616, 4625, 4634, 4643, 4652, 4661, 4670, 4679, 4688, 4697, 4706, 4715, 4724, 4733, 4742
 4751, 4760
*Surface, type=ELEMENT, name="Face +Z"
"_Face +Z_S2", S2
"_Face +Z_S3", S3
"_Face +Z_S4", S4
*Elset, elset="_Face -Z_S3", internal
    1,    2,   19,   20,   37,   38,   55,   56,   73,   74,   91,   92,  109,  110,  127,  128
 1361, 1370, 1557, 1558, 1559, 1560, 1561, 1562, 1563, 1564, 1629, 1630, 1631, 1632, 1633, 1634
 1635, 1636, 1879, 1880, 1881, 1882, 1883, 1884, 1885, 1886, 1943, 1944, 1945, 1946, 1947, 1948
 1949, 1950, 2745, 2753, 3673, 3674, 3675, 3676, 3677, 3678, 3679, 3680, 3737, 3738, 3739, 3740
 3741, 3742, 3743, 3744, 3801, 3802, 3803, 3804, 3805, 3806, 3807, 3808, 3865, 3866, 3867, 3868
 3869, 3870, 3871, 3872, 3929, 3930, 3931, 3932, 3933, 3934, 3935, 3936, 3993, 3994, 3995, 3996
 3997, 3998, 3999, 4000, 4057, 4058, 4059, 4060, 4061, 4062, 4063, 4064, 4121, 4122, 4123, 4124
 4125, 4126, 4127, 4128, 4957, 4958, 4973, 4974, 4989, 4990, 5005, 5006, 5021, 5022, 5037, 5038
 5053, 5054, 5069, 5070, 5085, 5093, 6045, 6054
*Elset, elset="_Face -Z_S4", internal
  793,  802,  811,  820,  829,  838,  847,  856,  865,  874,  883,  892,  901,  910,  919,  928
  937,  946,  955,  964,  973,  982,  991, 1000, 1009, 1018, 1027, 1036, 1045, 1054, 1063, 1072
 1081, 1090, 1099, 1108, 1117, 1126, 1135, 1144, 1153, 1162, 1171, 1180, 1189, 1198, 1207, 1216
 1225, 1234, 1243, 1252, 1261, 1270, 1279, 1288, 1297, 1306, 1315, 1324, 1333, 1342, 1351, 1360
 1547, 1556, 1870, 1878, 2768, 2776, 2784, 2792, 2800, 2808, 2816, 2824, 2832, 2840, 2848, 2856
 2864, 2872, 2880, 2888, 3552, 3560, 3568, 3576, 3584, 3592, 3600, 3608, 3616, 3624, 3632, 3640
 3648, 3656, 3664, 3672, 4768, 4776, 5909, 5918, 5927, 5936, 5945, 5954, 5963, 5972, 5981, 5990
 5999, 6008, 6017, 6026, 6035, 6044, 6071, 6080, 6089, 6098, 6107, 6116, 6125, 6134, 6143, 6152
 6161, 6170, 6179, 6188, 6197, 6206, 6215, 6224, 6233, 6242, 6251, 6260, 6269, 6278, 6287, 6296
 6305, 6314, 6323, 6332, 6341, 6350, 6359, 6368, 6377, 6386, 6395, 6404, 6413, 6422, 6431, 6440
 6449, 6458, 6467, 6476, 6485, 6494, 6503, 6512, 6521, 6530, 6539, 6548, 6557, 6566, 6575, 6584
 6593, 6602, 6611, 6620, 6629, 6638, 6647, 6656, 6665, 6674, 6683, 6692, 6701, 6710, 6719, 6728
 6737, 6746, 6755, 6764, 6773, 6782, 6791, 6800
*Elset, elset="_Face -Z_S2", internal, generate
 2889,  2952,     1
*Surface, type=ELEMENT, name="Face -Z"
"_Face -Z_S3", S3
"_Face -Z_S4", S4
"_Face -Z_S2", S2
*Elset, elset="_Internal Thread_S4", internal
 1361, 1362, 1363, 1364, 1365, 1366, 1367, 1368, 1369, 1370, 1371, 1372, 1373, 1374, 1375, 1376
 1377, 1378, 1845, 1846, 1847, 1848, 1849, 1850, 1851, 1852, 1853, 1854, 1855, 1856, 1857, 1858
 1859, 1860, 1861, 1862, 2727, 2728, 2729, 2730, 2731, 2732, 2733, 2734, 2735, 2736, 2737, 2738
 2739, 2740, 2741, 2742, 2743, 2744, 2745, 2746, 2747, 2748, 2749, 2750, 2751, 2752, 2753, 2754
 2755, 2756, 2757, 2758, 2759, 2760, 4777, 4778, 4779, 4780, 4781, 4782, 4783, 4784, 4785, 4786
 4787, 4788, 4789, 4790, 4791, 4792, 4793, 4794, 4939, 4940, 4941, 4942, 4943, 4944, 4945, 4946
 4947, 4948, 4949, 4950, 4951, 4952, 4953, 4954, 4955, 4956, 5085, 5086, 5087, 5088, 5089, 5090
 5091, 5092, 5093, 5094, 5095, 5096, 5097, 5098, 5099, 5100, 5229, 5230, 5231, 5232, 5233, 5234
 5235, 5236, 5237, 5238, 5239, 5240, 5241, 5242, 5243, 5244, 6045, 6046, 6047, 6048, 6049, 6050
 6051, 6052, 6053, 6054, 6055, 6056, 6057, 6058, 6059, 6060, 6061, 6062
*Elset, elset="_Internal Thread_S3", internal
 1379, 1380, 1381, 1382, 1383, 1384, 1385, 1386, 1387, 1388, 1389, 1390, 1391, 1392, 1393, 1394
 1395, 1396, 1397, 1398, 1399, 1400, 1401, 1402, 1403, 1404, 1405, 1406, 1407, 1408, 1409, 1410
 1539, 1540, 1541, 1542, 1543, 1544, 1545, 1546, 1547, 1548, 1549, 1550, 1551, 1552, 1553, 1554
 1555, 1556, 1863, 1864, 1865, 1866, 1867, 1868, 1869, 1870, 1871, 1872, 1873, 1874, 1875, 1876
 1877, 1878, 4761, 4762, 4763, 4764, 4765, 4766, 4767, 4768, 4769, 4770, 4771, 4772, 4773, 4774
 4775, 4776, 5245, 5246, 5247, 5248, 5249, 5250, 5251, 5252, 5253, 5254, 5255, 5256, 5257, 5258
 5259, 5260, 6783, 6784, 6785, 6786, 6787, 6788, 6789, 6790, 6791, 6792, 6793, 6794, 6795, 6796
 6797, 6798, 6799, 6800
*Surface, type=ELEMENT, name="Internal Thread"
"_Internal Thread_S4", S4
"_Internal Thread_S3", S3
** Section: Plate
*Solid Section, elset=Plate_All, material=Aluminium
,
*End Part
**  
**
** ASSEMBLY
**
*Assembly, name=Assembly
**  
*Instance, name=Plate-1, part=Plate
*End Instance
**  
*Instance, name=Plate-2, part=Plate
          0.,           0.,          0.1
*End Instance
**  
*Instance, name=Bolt-1, part=Bolt
          0.,           0.,        0.065
          0.,           0.,        0.065, 1.00000001268805,           0.,        0.065, 89.9999992730282
*End Instance
**  
*Nset, nset=Resistance, instance=Plate-1
  3, 15, 20, 23
*Nset, nset=Set-1, instance=Plate-1
    1,    2,    3,    4,    8,   10,   11,   14,   15,   16,   17,   18,   19,   20,   23,   24
   25,   26,   27,   28,   29,   30,   31,   32,   33,   34,   35,   36,   37,   38,   39,   40
   41,   42,   43,   44,   45,   46,   47,   48,   49,   58,   59,   60,   61,   62,   63,   64
   65,   66,   75,   76,   77,   78,   79,   80,   81,   82,   83,   84,   85,   86,   87,   88
   89,   90,   91,   92,   93,   94,   95,   96,   97,   98,   99,  100,  101,  102,  103,  104
  105,  106,  107,  108,  155,  156,  157,  158,  159,  160,  161,  162,  163,  164,  165,  166
  167,  168,  169,  170,  179,  180,  181,  182,  183,  184,  185,  186,  187,  188,  189,  190
  191,  192,  193,  194,  203,  204,  205,  206,  207,  208,  209,  210,  211,  242,  243,  244
  245,  246,  247,  248,  249,  250,  251,  252,  253,  254,  255,  256,  257,  258,  259,  260
  261,  262,  263,  264,  265,  266,  267,  268,  269,  270,  271,  272,  273,  274,  275,  276
  277,  278,  279,  280,  281,  282,  283,  284,  285,  286,  287,  288,  289,  290,  291,  292
  293,  294,  295,  296,  297,  298,  299,  300,  301,  302,  303,  304,  305,  306,  307,  308
  309,  318,  319,  320,  321,  322,  323,  324,  325,  326,  335,  336,  337,  338,  339,  340
  341,  342,  343,  344,  345,  346,  347,  348,  349,  350,  351,  352,  353,  354,  355,  356
  357,  358,  359,  360,  361,  362,  363,  364,  365,  366,  367,  368,  391,  392,  393,  394
  395,  396,  397,  398,  399,  403,  404,  405,  406,  407,  408,  409,  410,  411,  412,  413
  414,  415,  416,  417,  418,  419,  420,  421,  422,  423,  424,  425,  426,  427,  428,  429
  430,  431,  432,  433,  434,  435,  436,  440,  441,  442,  443,  444,  445,  446,  447,  448
  449,  450,  451,  452,  453,  454,  455,  456,  457,  458,  459,  460,  461,  462,  463,  464
  465,  466,  467,  468,  469,  470,  471,  472,  473,  474,  475,  476,  477,  478,  479,  480
** ... 70 like lines cut
*Elset, elset=Set-1, instance=Plate-1
    1,    2,    3,    4,    5,    6,    7,    8,    9,   10,   11,   12,   13,   14,   15,   16
   17,   18,  145,  146,  147,  148,  149,  150,  151,  152,  153,  154,  155,  156,  157,  158
  159,  160,  273,  274,  275,  276,  277,  278,  279,  280,  281,  282,  283,  284,  285,  286
  287,  288,  289,  290,  291,  292,  293,  294,  295,  296,  297,  298,  299,  300,  301,  302
  303,  304,  305,  306,  307,  308,  309,  310,  311,  312,  313,  314,  315,  316,  317,  318
  319,  320,  321,  322,  323,  324,  325,  326,  327,  328,  329,  330,  331,  332,  333,  334
  335,  336,  344,  352,  360,  368,  376,  384,  392,  400,  408,  416,  424,  432,  440,  448
  456,  464,  472,  480,  488,  496,  504,  512,  520,  528,  536,  544,  552,  560,  568,  576
  584,  592,  600,  608,  616,  624,  632,  640,  648,  656,  664,  672,  680,  688,  696,  704
  712,  720,  728,  736,  744,  752,  760,  768,  776,  784,  785,  786,  787,  788,  789,  790
  791,  792,  793,  794,  795,  796,  797,  798,  799,  800,  801,  802,  803,  804,  805,  806
  807,  808,  809,  810,  811,  812,  813,  814,  815,  816,  817,  818,  819,  820,  821,  822
  823,  824,  825,  826,  827,  828,  829,  830,  831,  832,  833,  834,  835,  836,  837,  838
  839,  840,  841,  842,  843,  844,  845,  846,  847,  848,  849,  850,  851,  852,  853,  854
  855,  856,  857,  858,  859,  860,  861,  862,  863,  864,  865,  929,  930,  931,  932,  933
  934,  935,  936,  937, 1001, 1002, 1003, 1004, 1005, 1006, 1007, 1008, 1009, 1073, 1074, 1075
 1076, 1077, 1078, 1079, 1080, 1081, 1145, 1146, 1147, 1148, 1149, 1150, 1151, 1152, 1153, 1217
 1218, 1219, 1220, 1221, 1222, 1223, 1224, 1225, 1289, 1290, 1291, 1292, 1293, 1294, 1295, 1296
 1297, 1418, 1426, 1434, 1442, 1450, 1458, 1466, 1474, 1482, 1490, 1498, 1506, 1514, 1522, 1530
 1538, 1564, 1572, 1580, 1588, 1596, 1604, 1612, 1620, 1628, 1636, 1644, 1652, 1660, 1668, 1676
** ... 61 like lines cut
*Nset, nset=Set-2, instance=Plate-2
 23,
*Nset, nset=Set-3, instance=Plate-2
 3,
*Nset, nset=Set-4, instance=Plate-2
 15,
*Nset, nset=Set-5, instance=Plate-2
 20,
*Nset, nset=Set-6, instance=Plate-1
 24,
*Nset, nset=Set-7, instance=Plate-1
 4,
*Nset, nset=Set-8, instance=Plate-1
 19,
*Elset, elset="_Preload Surface_S2", internal, instance=Bolt-1
 3238, 3762, 5270, 5285
*Elset, elset="_Preload Surface_S1", internal, instance=Bolt-1
 3245, 3389, 5228, 5354, 5522
*Elset, elset="_Preload Surface_S3", internal, instance=Bolt-1
 3268, 3314, 3769, 3831, 3918, 3997, 4544, 4875, 4878, 5245, 5263, 5456, 5497, 5711, 5847
*Elset, elset="_Preload Surface_S4", internal, instance=Bolt-1
 5230, 5231, 5278, 5299, 5318
*Surface, type=ELEMENT, name="Preload Surface"
"_Preload Surface_S2", S2
"_Preload Surface_S1", S1
"_Preload Surface_S4", S4
"_Preload Surface_S3", S3
*Elset, elset=_Surf-2_S2, internal, instance=Plate-1
    1,    2,    3,    4,    5,    6,    7,    8,    9,   10,   11,   12,   13,   14,   15,   16
   17,   18,  145,  146,  147,  148,  149,  150,  151,  152,  153,  154,  155,  156,  157,  158
  159,  160,  273,  274,  275,  276,  277,  278,  279,  280,  281,  282,  283,  284,  285,  286
  287,  288,  289,  290,  291,  292,  293,  294,  295,  296,  297,  298,  299,  300,  301,  302
  303,  304,  305,  306,  307,  308,  309,  310,  311,  312,  313,  314,  315,  316,  317,  318
  319,  320,  321,  322,  323,  324,  325,  326,  327,  328,  329,  330,  331,  332,  333,  334
  335,  336,  785,  786,  787,  788,  789,  790,  791,  792,  793,  794,  795,  796,  797,  798
  799,  800,  801,  802,  803,  804,  805,  806,  807,  808,  809,  810,  811,  812,  813,  814
  815,  816,  817,  818,  819,  820,  821,  822,  823,  824,  825,  826,  827,  828,  829,  830
  831,  832,  833,  834,  835,  836,  837,  838,  839,  840,  841,  842,  843,  844,  845,  846
  847,  848,  849,  850,  851,  852,  853,  854,  855,  856, 3401, 3402, 3403, 3404, 3405, 3406
 3407, 3408, 3409, 3410, 3411, 3412, 3413, 3414, 3415, 3416, 3417, 3418, 3545, 3546, 3547, 3548
 3549, 3550, 3551, 3552, 3553, 3554, 3555, 3556, 3557, 3558, 3559, 3560, 3673, 3674, 3675, 3676
 3677, 3678, 3679, 3680, 3681, 3682, 3683, 3684, 3685, 3686, 3687, 3688, 3689, 3690, 3691, 3692
 3693, 3694, 3695, 3696, 3697, 3698, 3699, 3700, 3701, 3702, 3703, 3704, 3705, 3706, 3707, 3708
 3709, 3710, 3711, 3712, 3713, 3714, 3715, 3716, 3717, 3718, 3719, 3720, 3721, 3722, 3723, 3724
 3725, 3726, 3727, 3728, 3729, 3730, 3731, 3732, 3733, 3734, 3735, 3736, 4185, 4186, 4187, 4188
 4189, 4190, 4191, 4192, 4193, 4194, 4195, 4196, 4197, 4198, 4199, 4200, 4201, 4202, 4203, 4204
 4205, 4206, 4207, 4208, 4209, 4210, 4211, 4212, 4213, 4214, 4215, 4216, 4217, 4218, 4219, 4220
 4221, 4222, 4223, 4224, 4225, 4226, 4227, 4228, 4229, 4230, 4231, 4232, 4233, 4234, 4235, 4236
** ... 8 like lines cut
*Elset, elset=_Surf-2_S3, internal, instance=Plate-1
  785,  786,  787,  788,  789,  790,  791,  792,  793,  857,  858,  859,  860,  861,  862,  863
  864,  865,  929,  930,  931,  932,  933,  934,  935,  936,  937, 1001, 1002, 1003, 1004, 1005
 1006, 1007, 1008, 1009, 1073, 1074, 1075, 1076, 1077, 1078, 1079, 1080, 1081, 1145, 1146, 1147
 1148, 1149, 1150, 1151, 1152, 1153, 1217, 1218, 1219, 1220, 1221, 1222, 1223, 1224, 1225, 1289
 1290, 1291, 1292, 1293, 1294, 1295, 1296, 1297, 1701, 1702, 1703, 1704, 1705, 1706, 1707, 1708
 1709, 1773, 1774, 1775, 1776, 1777, 1778, 1779, 1780, 1781, 2007, 2008, 2009, 2010, 2011, 2012
 2013, 2014, 2071, 2072, 2073, 2074, 2075, 2076, 2077, 2078, 2135, 2136, 2137, 2138, 2139, 2140
 2141, 2142, 2199, 2200, 2201, 2202, 2203, 2204, 2205, 2206, 2263, 2264, 2265, 2266, 2267, 2268
 2269, 2270, 2327, 2328, 2329, 2330, 2331, 2332, 2333, 2334, 2391, 2392, 2393, 2394, 2395, 2396
 2397, 2398, 2455, 2456, 2457, 2458, 2459, 2460, 2461, 2462, 2519, 2520, 2521, 2522, 2523, 2524
 2525, 2526, 2583, 2584, 2599, 2600, 2615, 2616, 2631, 2632, 2647, 2648, 2663, 2664, 2679, 2680
 2695, 2696, 2711, 2712, 2761, 2762, 2763, 2764, 2765, 2766, 2767, 2768, 2825, 2826, 2827, 2828
 2829, 2830, 2831, 2832, 2889, 2890, 2891, 2892, 2893, 2894, 2895, 2896, 2953, 2954, 2955, 2956
 2957, 2958, 2959, 2960, 3017, 3018, 3019, 3020, 3021, 3022, 3023, 3024, 3081, 3082, 3083, 3084
 3085, 3086, 3087, 3088, 3145, 3146, 3147, 3148, 3149, 3150, 3151, 3152, 3209, 3210, 3211, 3212
 3213, 3214, 3215, 3216, 3273, 3274, 3275, 3276, 3277, 3278, 3279, 3280, 3337, 3338, 3339, 3340
 3341, 3342, 3343, 3344, 4185, 4186, 4187, 4188, 4189, 4190, 4191, 4192, 4193, 4257, 4258, 4259
 4260, 4261, 4262, 4263, 4264, 4265, 4329, 4330, 4331, 4332, 4333, 4334, 4335, 4336, 4337, 4401
 4402, 4403, 4404, 4405, 4406, 4407, 4408, 4409, 4473, 4474, 4475, 4476, 4477, 4478, 4479, 4480
 4481, 4545, 4546, 4547, 4548, 4549, 4550, 4551, 4552, 4553, 4617, 4618, 4619, 4620, 4621, 4622
** ... 13 like lines cut
*Elset, elset=_Surf-2_S4, internal, instance=Plate-1
  280,  288,  296,  304,  312,  320,  328,  336,  344,  352,  360,  368,  376,  384,  392,  400
  408,  416,  424,  432,  440,  448,  456,  464,  472,  480,  488,  496,  504,  512,  520,  528
  536,  544,  552,  560,  568,  576,  584,  592,  600,  608,  616,  624,  632,  640,  648,  656
  664,  672,  680,  688,  696,  704,  712,  720,  728,  736,  744,  752,  760,  768,  776,  784
 1418, 1426, 1434, 1442, 1450, 1458, 1466, 1474, 1482, 1490, 1498, 1506, 1514, 1522, 1530, 1538
 1564, 1572, 1580, 1588, 1596, 1604, 1612, 1620, 1628, 1636, 1644, 1652, 1660, 1668, 1676, 1684
 1692, 1700, 1886, 1894, 1902, 1910, 1918, 1926, 1934, 1942, 1950, 1958, 1966, 1974, 1982, 1990
 1998, 2006, 2014, 2022, 2030, 2038, 2046, 2054, 2062, 2070, 2078, 2086, 2094, 2102, 2110, 2118
 2126, 2134, 2142, 2150, 2158, 2166, 2174, 2182, 2190, 2198, 2206, 2214, 2222, 2230, 2238, 2246
 2254, 2262, 2270, 2278, 2286, 2294, 2302, 2310, 2318, 2326, 2334, 2342, 2350, 2358, 2366, 2374
 2382, 2390, 2398, 2406, 2414, 2422, 2430, 2438, 2446, 2454, 2462, 2470, 2478, 2486, 2494, 2502
 2510, 2518, 2526, 2534, 2542, 2550, 2558, 2566, 2574, 2582, 2896, 2904, 2912, 2920, 2928, 2936
 2944, 2952, 2960, 2968, 2976, 2984, 2992, 3000, 3008, 3016, 3024, 3032, 3040, 3048, 3056, 3064
 3072, 3080, 3088, 3096, 3104, 3112, 3120, 3128, 3136, 3144, 3152, 3160, 3168, 3176, 3184, 3192
 3200, 3208, 3216, 3224, 3232, 3240, 3248, 3256, 3264, 3272, 3280, 3288, 3296, 3304, 3312, 3320
 3328, 3336, 3344, 3352, 3360, 3368, 3376, 3384, 3392, 3400, 3680, 3688, 3696, 3704, 3712, 3720
 3728, 3736, 3744, 3752, 3760, 3768, 3776, 3784, 3792, 3800, 3808, 3816, 3824, 3832, 3840, 3848
 3856, 3864, 3872, 3880, 3888, 3896, 3904, 3912, 3920, 3928, 3936, 3944, 3952, 3960, 3968, 3976
 3984, 3992, 4000, 4008, 4016, 4024, 4032, 4040, 4048, 4056, 4064, 4072, 4080, 4088, 4096, 4104
 4112, 4120, 4128, 4136, 4144, 4152, 4160, 4168, 4176, 4184, 5268, 5276, 5284, 5292, 5300, 5308
** ... 5 like lines cut
*Surface, type=ELEMENT, name=Surf-2
_Surf-2_S2, S2
_Surf-2_S3, S3
_Surf-2_S4, S4
** Constraint: Tie - Plate 1
*Tie, name="Tie - Plate 1", adjust=yes
Bolt-1."Contact 1", Plate-1."Face -Z"
** Constraint: Tie - Plate 2
*Tie, name="Tie - Plate 2", adjust=yes
Bolt-1."Contact 2", Plate-2."Face +Z"
*End Assembly
** 
** MATERIALS
** 
*Material, name=Aluminium
*Elastic
 6.8e+10, 0.35
*Material, name=Steel
*Elastic, depedencies=1
 2.1000e+11, 0.3, ,1
 1.9354e+11, 0.3, ,2
 1.7774e+11, 0.3, ,3
 1.6262e+11, 0.3, ,4
 1.4818e+11, 0.3, ,5
** 
** INTERACTION PROPERTIES
** 
*Surface Interaction, name=Friction
1.,
*Friction, slip tolerance=0.005
 0.2,
*Surface Behavior, pressure-overclosure=HARD
** 
** BOUNDARY CONDITIONS
** 
** Name: XYZ Type: Displacement/Rotation
*Boundary
Set-2, 1, 1
Set-2, 2, 2
Set-2, 3, 3
** Name: XZ Type: Displacement/Rotation
*Boundary
Set-3, 1, 1
Set-3, 3, 3
** Name: YZ Type: Displacement/Rotation
*Boundary
Set-5, 2, 2
Set-5, 3, 3
** Name: Z Type: Displacement/Rotation
*Boundary
Set-4, 3, 3
*Initial conditions, type=field, variable=1
Bolt-1.Bolt_All, 1
** 
** INTERACTIONS
** 
** Interaction: Plate to Plate
*Contact Pair, interaction=Friction, small sliding, type=SURFACE TO SURFACE
Plate-2."Face -Z", Plate-1."Face +Z"
** ----------------------------------------------------------------
** 
** STEP: S1 - Pretension
** 
*Step, name="S1 - Pretension", nlgeom=NO
*Static
1., 1., 1e-05, 1.
** 
** LOADS
** 
** Name: Bolt Pretension   Type: Bolt load
*Cload
Bolt-1."_Bolt Pretension_blrn_", 1, 10000.
** 
** OUTPUT REQUESTS
** 
*Restart, write, frequency=0
** 
** FIELD OUTPUT: F-Output-2
** 
*Output, field
*Element Output, directions=YES
STH, 
** 
** FIELD OUTPUT: F-Output-1
** 
*Output, field, variable=PRESELECT
** 
** HISTORY OUTPUT: H-Output-1
** 
*Output, history, variable=ALL
*End Step
** ----------------------------------------------------------------
** 
** STEP: S2 - Resistance
** 
*Step, name="S2 - Resistance", nlgeom=NO
*Static
1., 1., 1e-05, 1.
** 
** BOUNDARY CONDITIONS
** 
** Name: XYZ Type: Displacement/Rotation
*Boundary, op=NEW
Set-2, 1, 1
Set-2, 2, 2
Set-2, 3, 3
** Name: XZ Type: Displacement/Rotation
*Boundary, op=NEW
Set-3, 1, 1
Set-3, 3, 3
** Name: YZ Type: Displacement/Rotation
*Boundary, op=NEW
Set-5, 2, 2
Set-5, 3, 3
** Name: Z Type: Displacement/Rotation
*Boundary, op=NEW
Set-4, 3, 3
** Name: Bolt Pretension Type: Bolt load
*Boundary, op=NEW, fixed
Bolt-1."_Bolt Pretension_blrn_", 1, 1
** 
** LOADS
** 
** Name: Bolt Pretension   Type: Bolt load
*Cload, op=NEW
** Name: Resistance   Type: Surface traction
*Dsload
Surf-2, TRSHR, 10000., 2.95314e-16, -1.38778e-16, -1.
** 
** OUTPUT REQUESTS
** 
*Restart, write, frequency=0
** 
** FIELD OUTPUT: F-Output-2
** 
*Output, field
*Element Output, directions=YES
STH, 
** 
** FIELD OUTPUT: F-Output-1
** 
*Output, field, variable=PRESELECT
** 
** HISTORY OUTPUT: H-Output-1
** 
*Output, history, variable=ALL
*End Step
** STEP: reduce 1
** 
*Step, name=reduction1, nlgeom=NO
*Static
1., 1., 1e-05, 1.
** PDD - Bolt modulus reduced using filed variables
*Field, variable=1
Bolt-1.Bolt_All, 2
** 
** OUTPUT REQUESTS
** 
*Restart, write, frequency=0
** 
** FIELD OUTPUT: F-Output-1
** 
*Output, field, variable=PRESELECT
** 
** HISTORY OUTPUT: H-Output-1
** 
*Output, history, variable=PRESELECT
*End Step
** STEP: reduce 2
** 
*Step, name=reduction2, nlgeom=NO
*Static
1., 1., 1e-05, 1.
** PDD - Bolt modulus reduced using filed variables
*Field, variable=1
Bolt-1.Bolt_All, 3
** 
** OUTPUT REQUESTS
** 
*Restart, write, frequency=0
** 
** FIELD OUTPUT: F-Output-1
** 
*Output, field, variable=PRESELECT
** 
** HISTORY OUTPUT: H-Output-1
** 
*Output, history, variable=PRESELECT
*End Step
** STEP: reduce 3
** 
*Step, name=reduction3, nlgeom=NO
*Static
1., 1., 1e-05, 1.
** PDD - Bolt modulus reduced using filed variables
*Field, variable=1
Bolt-1.Bolt_All, 4
** 
** OUTPUT REQUESTS
** 
*Restart, write, frequency=0
** 
** FIELD OUTPUT: F-Output-1
** 
*Output, field, variable=PRESELECT
** 
** HISTORY OUTPUT: H-Output-1
** 
*Output, history, variable=PRESELECT
*End Step
** STEP: reduce 4
** 
*Step, name=reduction4, nlgeom=NO
*Static
1., 1., 1e-05, 1.
** PDD - Bolt modulus reduced using filed variables
*Field, variable=1
Bolt-1.Bolt_All, 5
** 
** OUTPUT REQUESTS
** 
*Restart, write, frequency=0
** 
** FIELD OUTPUT: F-Output-1
** 
*Output, field, variable=PRESELECT
** 
** HISTORY OUTPUT: H-Output-1
** 
*Output, history, variable=PRESELECT
*End Step